24

C	-0.3750179307827952	1.6472063194486868	0.7948736169608791
C	0.03031721338845439	2.8109343086696605	0.15704376299413025
C	1.0081138506175453	2.7718132925998806	-0.8262436807472484
C	0.20694180936897788	0.4293491633178723	0.4310971691391454
C	1.2047786725	0.3610783364	-0.5608862301
C	1.5988177931126186	1.5541353559863516	-1.178018899721518
O	-0.506984059100046	4.023017806677812	0.4710261778517348
H	-0.9503014080494983	4.378735469322807	-0.3165291507626977
H	2.370723737958971	1.5818728595451206	-1.936480190754756
H	-0.12064934235401759	-0.47796632978407405	0.9373945541496752
H	-1.135044556759082	1.6632140897854235	1.5694673539884603
H	1.3163939763657102	3.690702267290807	-1.31768607614051
C	1.7669378109	-1.0073415843	-0.8964726351
C	0.8861136886000003	-2.0194271779	-1.6556452928999998
H	2.1212942615	-1.4658934705	0.0371405069
H	2.6645736857	-0.8285314013	-1.5058797896
C	0.2877589134532291	-1.3395947866965	-2.9073107439217853
O	-0.737804527150973	-1.6681143506863838	-3.4822389761746395
O	1.0840958104967955	-0.3212779284538352	-3.3324255931436495
H	1.779658196622512	-0.2256367801467727	-2.6333317612602105
N	1.5974431198257268	-3.250847974121159	-2.130106057212798
H	0.035857889058054315	-2.3311635834491296	-1.0380562551441446
H	1.3459887248399935	-3.4027173332175504	-3.1136805708051583
H	2.6013794548077778	-3.0583569723088972	-2.154480590320855
