24

C	1.6703676789	2.618292930600001	0.26141323620000023
C	0.32486494919999975	2.9356566767000007	0.14187666590000025
C	-0.5827485327000006	1.9945957799000005	-0.3219261700999999
C	2.1038069276000004	1.3347478299000004	-0.08330242639999985
C	1.2047786725	0.3610783364	-0.5608862301
C	-0.14410456810000016	0.7159143874	-0.67967172
O	-0.15047973390000008	4.170318300500001	0.4675791795000003
H	-0.7850652900998667	4.075516154056528	1.1967036187546403
H	-0.8895276321000007	0.026278978299999867	-1.0546639132
H	3.1621736383000005	1.0964805338	0.016512452600000227
H	2.3926011133000005	3.3457767379000005	0.6178376387000005
H	-1.6336800213000007	2.2564004859000004	-0.41086724
C	1.7669378109	-1.0073415843	-0.8964726351
C	0.8861136886000003	-2.0194271779	-1.6556452928999998
H	2.1212942615	-1.4658934705	0.0371405069
H	2.6645736857	-0.8285314013	-1.5058797896
C	0.2877589134532291	-1.3395947866965	-2.9073107439217853
O	0.8327663527072078	-1.227860161971133	-3.993924848222262
O	-0.9441123534167467	-0.8279108997407106	-2.638020762501956
H	-1.538879113728325	-1.199402261381508	-3.337972987353481
N	1.5974431198257268	-3.250847974121159	-2.130106057212798
H	0.035857889058054315	-2.3311635834491296	-1.0380562551441446
H	2.6066351067986027	-3.09206118338997	-2.0299525385653405
H	1.3975607575286015	-4.013846582989002	-1.479402413110221
