12

C       -4.7778279465      2.4504760989      0.0000000000                 
C       -3.5828532478      3.1699028952     -0.0000000000                 
C       -4.7522734450      1.0558843557     -0.0000000000                 
C       -3.5317442932      0.3807192499     -0.0000000000                 
C       -2.3367695774      1.1001460289     -0.0000000000                 
C       -2.3623240667      2.4947377861     -0.0000000000                 
H       -1.4313010536      3.0552539059     -0.0000000000                 
H       -3.6027632890      4.2564504729     -0.0000000000                 
H       -5.7287607360      2.9765074206      0.0000000000                 
H       -5.6832963096      0.4953680066      0.0000000000                 
H       -3.5118346301     -0.7058283300     -0.0000000000                 
H       -1.3858367077      0.5741148432     -0.0000000000                 