58

C       -7.0380234761      3.2075074172      0.3094845086                 
C       -7.1142762273      1.9840436481     -0.3420017623                 
C       -5.9668085000      1.3649988648     -0.8193585544                 
C       -5.7895910598      3.8076273782      0.4942164775                 
C       -4.6091037477      3.1951359289      0.0326949055                 
C       -4.7193646008      1.9734667569     -0.6452806427                 
H       -7.9279445706      3.7088118051      0.6761236287                 
H       -5.7398459855      4.7703060257      1.0008712550                 
H       -6.0422504460      0.4110464646     -1.3342857821                 
H       -3.8486064290      1.4676385834     -1.0535161218                 
C       -3.2988368168      3.9273174970      0.2612342937                 
C       -1.9734307313      3.1864940370     -0.0145034651                 
H       -3.2902110104      4.2795837641      1.3025756008                 
H       -3.3267897309      4.8267476763     -0.3695721012                 
C       -0.7770095379      4.1574543854      0.1491843506                 
O       -8.3076980756      1.3561580275     -0.5409172972                 
H       -9.0145682028      1.9133884612     -0.1761754881                 
O       -0.8679620598      5.2663604899      0.6684229279                 
N       -1.7444953221      2.0397044105      0.8998709892                 
H       -1.9593379437      2.8228871417     -1.0489003687                 
H       -2.5795418781      1.4529697130      0.9093484372                 
H       -1.6776184608      2.4047702514      1.8525586007                 
N        0.4146224446      3.6363654558     -0.3023235703                 
C        1.6965404700      4.3074908941     -0.1256687407                 
H        0.4325324939      2.6509246501     -0.5569356306                 
C        1.8411279580      5.5202968888     -1.0379149630                 
H        1.7713260891      5.2275417010     -2.0921289732                 
H        2.8121163592      6.0058112953     -0.8941991563                 
H        1.0600043035      6.2628870710     -0.8494261503                 
C        2.8206798711      3.3032555009     -0.4593079823                 
H        1.7724152484      4.6114539755      0.9247844951                 
O        2.6465407638      2.4149050549     -1.2898968811                 
N        3.9965312023      3.4985292155      0.2381687800                 
C        5.3130971304      2.8778616724     -0.0648457998                 
H        4.0506641821      4.3681583282      0.7574471971                 
C        5.3234583057      1.6365033770     -0.9686120252                 
C        6.3565238202      0.5834499762     -0.6496505550                 
H        5.4146154153      1.9165302548     -2.0251840367                 
H        4.3716493197      1.1069186326     -0.8663135326                 
C        6.1491131516      3.9961925754     -0.7008620952                 
H        5.7315113875      2.6540303159      0.9235834687                 
O        5.7191028410      4.8020680824     -1.5210684867                 
O        7.4114082562      4.0874441438     -0.2231764074                 
H        7.6695566780      3.3776356603      0.3991041216                 
C        7.7673854918      0.5528518121     -0.9211764483                 
C        6.0347494949     -0.6533583771     -0.1152899147                 
C        8.2306934258     -0.7179779342     -0.5626659452                 
N        7.1556593542     -1.4301513373     -0.0920414580                 
H        7.1891110214     -2.3997986243      0.1919362512                 
C        8.7022042684      1.4534198509     -1.4751624940                 
C       10.0466937896      1.0745083802     -1.6045178508                 
C        9.5606200597     -1.1265058726     -0.7233448871                 
C       10.4663028470     -0.2004144059     -1.2396115424                 
H        5.0798918920     -1.0635410203      0.1892036712                 
H        8.4021880981      2.4370433383     -1.8227380214                 
H       10.7661169250      1.7792629205     -2.0156207738                 
H        9.8799592185     -2.1318297178     -0.4663846087                 
H       11.5070616293     -0.4870494388     -1.3738047644                 
