27

C   -1.42354   2.60548   -0.06677
C   -1.30728   1.21347   -0.10723
C   -0.01789   0.6712   -0.1697
C   -0.29406   3.41909   -0.08913
C   0.98722   2.85903   -0.15604
C   1.13408   1.45621   -0.19703
N   0.38794   -0.63953   -0.21408
C   2.26666   0.57274   -0.26593
C   1.7556   -0.71236   -0.27069
H   -0.24004   -1.43135   -0.20473
C   3.70301   1.02234   -0.33201
C   4.05477   2.26158   0.504997
H   3.94076   1.22782   -1.38432
H   4.3456   0.180167   -0.0411573
C   5.42701   2.79515   0.0535521
N   4.14127   1.98365   1.9827
H   3.32778   3.06733   0.349161
H   3.86465   1.00626   2.12156
H   5.13354   1.99768   2.24361
H   -2.41086   3.05887   -0.01578
H   -2.18961   0.58224   -0.08901
H   -0.40527   4.50005   -0.05354
H   1.85905   3.50668   -0.17151
H   2.23273   -1.68132   -0.3063
O   5.7256   3.11211   -1.08587
O   6.29159   2.87648   1.10067
H   6.52244   3.83917   1.16812
