24

C   1.67037   2.61829   0.261413
C   0.324865   2.93566   0.141877
C   -0.582749   1.9946   -0.321926
C   2.10381   1.33475   -0.0833024
C   1.20478   0.361078   -0.560886
C   -0.144105   0.715914   -0.679672
O   -0.15048   4.17032   0.467579
H   0.59652   4.72771   0.740738
H   -0.889528   0.026279   -1.05466
H   3.16217   1.09648   0.0165125
H   2.3926   3.34578   0.617838
H   -1.63368   2.2564   -0.410867
C   1.76694   -1.00734   -0.896473
C   3.20697   -1.35649   -0.471123
H   1.66341   -1.15936   -1.97982
H   1.09621   -1.73851   -0.422523
C   3.45986   -2.86212   -0.707723
O   4.51166   -3.36595   -1.06846
O   2.32465   -3.58254   -0.497656
H   1.67046   -2.93586   -0.129509
N   4.28393   -0.615922   -1.20544
H   3.34469   -1.18585   0.602862
H   3.85371   -0.148822   -2.01194
H   4.61147   0.152432   -0.615628
