24

C   1.67037   2.61829   0.261413
C   0.324865   2.93566   0.141877
C   -0.582749   1.9946   -0.321926
C   2.10381   1.33475   -0.0833024
C   1.20478   0.361078   -0.560886
C   -0.144105   0.715914   -0.679672
O   -0.15048   4.17032   0.467579
H   -0.587116   4.54987   -0.31255
H   -0.889528   0.026279   -1.05466
H   3.16217   1.09648   0.0165125
H   2.3926   3.34578   0.617838
H   -1.63368   2.2564   -0.410867
C   1.76694   -1.00734   -0.896473
C   2.22757   -1.93461   0.24567
H   2.59509   -0.868482   -1.60525
H   0.977968   -1.53462   -1.452
C   2.52913   -3.33842   -0.324652
O   2.50227   -4.38793   0.29829
O   2.87796   -3.26275   -1.63783
H   2.27889   -3.90001   -2.10334
N   3.46186   -1.48696   0.969298
H   1.42703   -2.06679   0.98268
H   4.09513   -2.29148   1.043
H   3.9657   -0.824461   0.375348
