24

C   1.67037   2.61829   0.261413
C   0.324865   2.93566   0.141877
C   -0.582749   1.9946   -0.321926
C   2.10381   1.33475   -0.0833024
C   1.20478   0.361078   -0.560886
C   -0.144105   0.715914   -0.679672
O   -0.15048   4.17032   0.467579
H   -0.785065   4.07552   1.1967
H   -0.889528   0.026279   -1.05466
H   3.16217   1.09648   0.0165125
H   2.3926   3.34578   0.617838
H   -1.63368   2.2564   -0.410867
C   1.76694   -1.00734   -0.896473
C   0.886114   -2.01943   -1.65565
H   2.12129   -1.46589   0.0371405
H   2.66457   -0.828531   -1.50588
C   0.287759   -1.33959   -2.90731
O   -0.066418   -0.174412   -2.9919
O   0.160833   -2.23055   -3.92807
H   0.617306   -1.80888   -4.69977
N   1.59744   -3.25085   -2.13011
H   0.0358579   -2.33116   -1.03806
H   2.60664   -3.09206   -2.02995
H   1.39756   -4.01385   -1.4794
