24

C   1.67037   2.61829   0.261413
C   0.324865   2.93566   0.141877
C   -0.582749   1.9946   -0.321926
C   2.10381   1.33475   -0.0833024
C   1.20478   0.361078   -0.560886
C   -0.144105   0.715914   -0.679672
O   -0.15048   4.17032   0.467579
H   -0.587116   4.54987   -0.31255
H   -0.889528   0.026279   -1.05466
H   3.16217   1.09648   0.0165125
H   2.3926   3.34578   0.617838
H   -1.63368   2.2564   -0.410867
C   1.76694   -1.00734   -0.896473
C   3.02593   -1.10983   -1.78018
H   0.960677   -1.60351   -1.34591
H   1.99864   -1.48741   0.0652717
C   2.67445   -0.684756   -3.22331
O   2.65204   0.458727   -3.65015
O   2.34364   -1.7666   -3.97964
H   2.92171   -1.70952   -4.7823
N   4.17874   -0.255513   -1.34579
H   3.37222   -2.14809   -1.84037
H   3.83539   0.403466   -0.63757
H   4.84667   -0.84188   -0.840255
