24

C   1.67037   2.61829   0.261413
C   0.324865   2.93566   0.141877
C   -0.582749   1.9946   -0.321926
C   2.10381   1.33475   -0.0833024
C   1.20478   0.361078   -0.560886
C   -0.144105   0.715914   -0.679672
O   -0.15048   4.17032   0.467579
H   -0.587116   4.54987   -0.31255
H   -0.889528   0.026279   -1.05466
H   3.16217   1.09648   0.0165125
H   2.3926   3.34578   0.617838
H   -1.63368   2.2564   -0.410867
C   1.76694   -1.00734   -0.896473
C   2.22757   -1.93461   0.24567
H   2.59509   -0.868482   -1.60525
H   0.977968   -1.53462   -1.452
C   3.50407   -1.35356   0.893597
O   4.39808   -0.759275   0.312382
O   3.53632   -1.62401   2.22689
H   2.654   -2.0252   2.43243
N   1.23117   -2.12729   1.3491
H   2.50189   -2.92147   -0.144712
H   1.71852   -1.99439   2.2427
H   0.555205   -1.36082   1.31538
