24

C   1.67037   2.61829   0.261413
C   0.324865   2.93566   0.141877
C   -0.582749   1.9946   -0.321926
C   2.10381   1.33475   -0.0833024
C   1.20478   0.361078   -0.560886
C   -0.144105   0.715914   -0.679672
O   -0.15048   4.17032   0.467579
H   0.59652   4.72771   0.740738
H   -0.889528   0.026279   -1.05466
H   3.16217   1.09648   0.0165125
H   2.3926   3.34578   0.617838
H   -1.63368   2.2564   -0.410867
C   1.76694   -1.00734   -0.896473
C   3.02593   -1.10983   -1.78018
H   0.960677   -1.60351   -1.34591
H   1.99864   -1.48741   0.0652717
C   3.53472   -2.5686   -1.77923
O   3.13787   -3.46835   -2.50255
O   4.48192   -2.7503   -0.819199
H   4.06678   -3.35792   -0.155769
N   2.82914   -0.720851   -3.21457
H   3.83804   -0.499884   -1.36788
H   1.81993   -0.64707   -3.38712
H   3.17637   0.232088   -3.34446
