27

C   -1.42354   2.60548   -0.06677
C   -1.30728   1.21347   -0.10723
C   -0.01789   0.6712   -0.1697
C   -0.29406   3.41909   -0.08913
C   0.98722   2.85903   -0.15604
C   1.13408   1.45621   -0.19703
N   0.38794   -0.63953   -0.21408
C   2.26666   0.57274   -0.26593
C   1.7556   -0.71236   -0.27069
H   -0.24004   -1.43135   -0.20473
C   3.70301   1.02234   -0.33201
C   4.74657   -0.00249   0.13781
H   3.79785   1.92903   0.28037
H   3.92339   1.3349   -1.36182
C   4.89649   -1.09167   -0.940495
N   4.37648   -0.68923   1.42612
H   5.73132   0.461904   0.26686
H   3.51022   -0.254621   1.7605
H   4.09704   -1.64954   1.19682
H   -2.41086   3.05887   -0.01578
H   -2.18961   0.58224   -0.08901
H   -0.40527   4.50005   -0.05354
H   1.85905   3.50668   -0.17151
H   2.23273   -1.68132   -0.3063
O   5.17757   -0.897436   -2.11147
O   4.67514   -2.32996   -0.4226
H   3.92225   -2.69881   -0.953369
