27

C   -1.42354   2.60548   -0.06677
C   -1.30728   1.21347   -0.10723
C   -0.01789   0.6712   -0.1697
C   -0.29406   3.41909   -0.08913
C   0.98722   2.85903   -0.15604
C   1.13408   1.45621   -0.19703
N   0.38794   -0.63953   -0.21408
C   2.26666   0.57274   -0.26593
C   1.7556   -0.71236   -0.27069
H   -0.24004   -1.43135   -0.20473
C   3.70301   1.02234   -0.33201
C   3.93417   2.44618   -0.860474
H   4.24534   0.315095   -0.973703
H   4.14729   0.917828   0.667222
C   5.42574   2.61428   -1.20472
N   3.57494   3.52088   0.131643
H   3.36781   2.62624   -1.78181
H   4.10892   3.33191   0.986193
H   3.96667   4.40458   -0.212581
H   -2.41086   3.05887   -0.01578
H   -2.18961   0.58224   -0.08901
H   -0.40527   4.50005   -0.05354
H   1.85905   3.50668   -0.17151
H   2.23273   -1.68132   -0.3063
O   6.16455   3.47619   -0.758446
O   5.83687   1.66374   -2.08678
H   5.02509   1.12779   -2.2827
