24

C	0.04488326691582234	2.3534064220112274	-1.3813974773213262
C	0.1418476346098918	2.924858177786724	-0.12067263151766894
C	0.755565389997625	2.240273717430944	0.9181562995655644
C	0.5800580432020657	1.080368518056309	-1.5985355665811087
C	1.2047786725	0.3610783364	-0.5608862301
C	1.277262433122893	0.9610459168509232	0.7017655902073417
O	-0.3596449868672065	4.163861894739988	0.14352229724001142
H	-0.7857425034245666	4.503490888574882	-0.6604688569131439
H	1.72751261655294	0.4624698970390322	1.5506286012864918
H	0.4997168051159173	0.6426500300659882	-2.5929309705893835
H	-0.43700073502608516	2.8749242969785684	-2.2021892250310637
H	0.824566478980397	2.699394088275564	1.9006818954277818
C	1.7669378109	-1.0073415843	-0.8964726351
C	0.8861136886000003	-2.0194271779	-1.6556452928999998
H	2.1212942615	-1.4658934705	0.0371405069
H	2.6645736857	-0.8285314013	-1.5058797896
C	0.2877589134532291	-1.3395947866965	-2.9073107439217853
O	-0.737804527150973	-1.6681143506863838	-3.4822389761746395
O	1.0840958104967955	-0.3212779284538352	-3.3324255931436495
H	0.4857959348363941	0.4654474999794549	-3.4016123480976748
N	1.5974431198257268	-3.250847974121159	-2.130106057212798
H	0.035857889058054315	-2.3311635834491296	-1.0380562551441446
H	1.3459887248399935	-3.4027173332175504	-3.1136805708051583
H	2.6013794548077778	-3.0583569723088972	-2.154480590320855
