13

C   -5.25428   2.22346   0.0148387
C   -3.9772   1.40678   -0.108593
H   -5.27251   3.02972   -0.726631
H   -5.33862   2.69082   1.00278
H   -6.13908   1.59866   -0.145898
C   -2.73458   2.29154   0.0876696
N   -3.94698   0.308317   0.903488
H   -3.89621   0.956427   -1.10363
H   -4.43505   -0.504502   0.510554
H   -2.97591   -0.00697278   0.988482
O   -2.34666   2.74488   1.15221
O   -2.12081   2.53826   -1.1003
H   -2.65173   2.04644   -1.77704
