13

C   -5.25428   2.22346   0.0148387
C   -3.9772   1.40678   -0.108593
H   -5.88776   1.83398   0.819299
H   -5.84497   2.18778   -0.907855
H   -5.03184   3.27184   0.239594
C   -2.73458   2.29154   0.0876696
N   -3.94698   0.308317   0.903488
H   -3.89621   0.956427   -1.10363
H   -3.46068   -0.495787   0.490924
H   -3.32746   0.60529   1.6635
O   -1.77353   2.02046   0.789187
O   -2.85038   3.45381   -0.608441
H   -2.02433   3.963   -0.408147
