13

C   -5.25428   2.22346   0.0148387
C   -3.9772   1.40678   -0.108593
H   -6.04372   1.80777   -0.620875
H   -5.09923   3.26202   -0.299686
H   -5.62106   2.22847   1.0466
C   -2.73458   2.29154   0.0876696
N   -3.94698   0.308317   0.903488
H   -3.89621   0.956427   -1.10363
H   -4.42028   0.639512   1.75177
H   -4.554   -0.443131   0.56221
O   -2.54826   3.37957   -0.432628
O   -1.83309   1.6887   0.907875
H   -2.25224   0.830953   1.17307
