13

C   -3.71339   1.69506   0.317352
C   -2.49627   2.63452   0.242
C   -4.95655   2.39242   -0.21557
H   -4.78544   2.74642   -1.23866
H   -5.21492   3.2646   0.394767
H   -5.82051   1.71958   -0.242092
N   -3.40979   0.451954   -0.454919
H   -3.85756   1.41772   1.36693
H   -4.23406   0.223878   -1.02067
H   -2.68785   0.669413   -1.14869
O   -2.45719   3.77604   0.668163
O   -1.43893   2.02211   -0.35493
H   -0.751817   1.94084   0.353171
