13

C   -3.71339   1.69506   0.317352
C   -2.49627   2.63452   0.242
C   -4.95655   2.39242   -0.21557
H   -5.20997   3.25283   0.41434
H   -5.82059   1.71907   -0.214775
H   -4.8084   2.76517   -1.23486
N   -3.40979   0.451954   -0.454919
H   -3.85756   1.41772   1.36693
H   -3.20724   -0.29484   0.217974
H   -4.26898   0.13969   -0.917601
O   -1.95131   3.00416   -0.783949
O   -2.1006   3.02673   1.48255
H   -2.66451   2.50969   2.1109
