13

C       -3.7133897871      1.6950619608      0.3173518957                 
C       -2.4962708658      2.6345240708      0.2420000613                 
C       -5.5564308831      1.7016277255      0.1249118606                 
H       -5.8098508758      2.5620394411      0.7548213164                 
H       -6.4204665595      1.0282784062      0.1257068207                 
H       -5.4082775582      2.0743759384     -0.8943778936                 
N       -3.4097860110      0.4519544747     -0.4549190006                 
H       -3.8575627765      1.4177192419      1.3669276183                 
H       -3.2072435174     -0.2948400178      0.2179743481                 
H       -4.2689794676      0.1396901513     -0.9176011901                 
O       -2.4571947510      3.7760358461      0.6681628871                 
O       -1.4389273603      2.0221115648     -0.3549303078                 
H       -1.7862916164      1.1491118392     -0.6669267228
