13

C       -3.7133897871      1.6950619608      0.3173518957
C       -2.4962708658      2.6345240708      0.2420000613
C       -4.9565526721      2.3924205163     -0.2155697980
H       -4.9066613082      3.4132894650     -0.4676604410
H       -5.6641758560      2.5075461985      0.6028417092
H       -5.3033782553      1.9704253669     -1.1187717859
N       -3.4097860110      0.4519544747     -0.4549190006
H       -3.8575627765      1.4177192419      1.3669276183
H       -3.2072435174     -0.2948400178      0.2179743481
H       -4.2689794676      0.1396901513     -0.9176011901
O       -2.4571947510      3.7760358461      0.6681628871
O       -1.4389273603      2.0221115648     -0.3549303078
H       -1.7862916164      1.1491118392     -0.6669267228
