24
Coordinates from ORCA-job orca
  C   -0.19472855804561      2.40646803377754     -1.19202769588508
  C   0.19936007893525      2.83037915489859      0.09505657851018
  C   1.13413983597227      2.06215572970815      0.81670921730519
  C   0.34058680400152      1.23390249326008     -1.73599075379380
  C   1.27933628190928      0.44959099862206     -1.02834354162028
  C   1.66089928540465      0.88815226589755      0.25520944709887
  O   -0.34762711533181      3.98163633739049      0.58014405900144
  H   0.02889298290922      4.15839683856044      1.46279693496374
  H   0.02729194144147      0.92197679184914     -2.74515703984934
  H   2.40475355585712      0.30973921283580      0.82789963447864
  H   1.45721040990700      2.38915334639424      1.81866448140191
  H   -0.91730785945491      3.01864618612809     -1.75162941384436
  C   1.78998325169387     -0.85286842885904     -1.59695313409031
  C   0.79156302957072     -2.01175922624451     -1.39807186461601
  H   2.75611059891928     -1.12874239497152     -1.12098039288190
  H   1.99073590396585     -0.77574113913215     -2.68398157997709
  C   1.27921338475540     -3.30508842843850     -2.10816830900721
  O   1.84828559402952     -3.30347640987471     -3.18118242371493
  O   0.97028567472901     -4.41048090232571     -1.41326457701711
  H   0.54906365083653     -4.02601088300854     -0.57813065306558
  N   0.45600100577056     -2.34279437915050     -0.00176156790152
  H   -0.15967800307476     -1.74278208583480     -1.90930016198873
  H   1.26212540474439     -2.16765735635349      0.61437352462593
  H   -0.30963816794582     -1.75836697412872      0.35416208326738
