24
Coordinates from ORCA-job orca
  C   1.04339875466306      2.09894695887641      0.64681681796849
  C   0.01980970578474      2.76423009713591     -0.05709444883865
  C   -0.39561527585808      2.26129693720905     -1.30834685209526
  C   1.63479459817844      0.94710007382410      0.10419276836581
  C   1.23100982516350      0.42904904781524     -1.14237185079897
  C   0.20454101882692      1.11169064970427     -1.83363327851952
  O   -0.59413659615100      3.88796473051577      0.41205731335376
  H   -0.19989953389180      4.12206902274731      1.27318625189713
  H   -0.12716480288454      0.73660255545370     -2.81500213041048
  H   2.44755133081554      0.45267434967002      0.66118782350081
  H   1.38419446983551      2.48909505557237      1.61997227182085
  H   -1.18795127291466      2.79341143581234     -1.85481104543415
  C   1.80842938957243     -0.85790984374890     -1.68146598866706
  C   0.94257527086160     -2.08292339796583     -1.32151281276770
  H   2.83450698806690     -1.01962172705802     -1.28464938433583
  H   1.90250720744652     -0.83455061833219     -2.78544135363834
  C   1.47210615550457     -3.37312853211898     -2.00611773220850
  O   1.94849376220913     -3.39001104559344     -3.12307623324606
  O   1.30712136953172     -4.45891358932494     -1.23450030129680
  H   0.92753833165139     -4.06314657660164     -0.38568214329874
  N   0.76801869908403     -2.35514638303935      0.11594199703144
  H   -0.07330126874170     -1.92611252722934     -1.74834222957517
  H   1.62104358051461     -2.10714099172081      0.63678377116758
  H   0.00955624621374     -1.79221557711038      0.51892947510902
