13

C   -3.71339   1.69506   0.317352
C   -2.49627   2.63452   0.242
C   -4.95655   2.39242   -0.21557
H   -5.8073   1.70141   -0.222369
H   -4.80712   2.73938   -1.24379
H   -5.23757   3.25169   0.402921
N   -3.40979   0.451954   -0.454919
H   -3.85756   1.41772   1.36693
H   -4.23406   0.223878   -1.02067
H   -2.68785   0.669413   -1.14869
O   -1.40405   2.41723   0.738009
O   -2.78352   3.75456   -0.473797
H   -3.75124   3.69424   -0.673815
