13

C   -3.71339   1.69506   0.317352
C   -2.49627   2.63452   0.242
C   -4.95655   2.39242   -0.21557
H   -5.32517   1.88094   -1.11213
H   -4.74116   3.42963   -0.494427
H   -5.76925   2.39245   0.51884
N   -3.40979   0.451954   -0.454919
H   -3.85756   1.41772   1.36693
H   -3.48453   0.675459   -1.4529
H   -2.41886   0.224838   -0.327323
O   -1.41784   2.35559   -0.253348
O   -2.77644   3.84682   0.790815
H   -1.97827   4.40429   0.611132
