27

C   -1.42354   2.60548   -0.06677
C   -1.30728   1.21347   -0.10723
C   -0.01789   0.6712   -0.1697
C   -0.29406   3.41909   -0.08913
C   0.98722   2.85903   -0.15604
C   1.13408   1.45621   -0.19703
N   0.38794   -0.63953   -0.21408
C   2.26666   0.57274   -0.26593
C   1.7556   -0.71236   -0.27069
H   -0.24004   -1.43135   -0.20473
C   3.70301   1.02234   -0.33201
C   4.21977   1.40645   -1.7268
H   4.32618   0.209342   0.0639454
H   3.83703   1.86403   0.36108
C   5.75718   1.48485   -1.68485
N   3.71179   2.73959   -2.20952
H   3.95534   0.6477   -2.47275
H   3.04829   3.08106   -1.50649
H   4.49029   3.40595   -2.15687
H   -2.41086   3.05887   -0.01578
H   -2.18961   0.58224   -0.08901
H   -0.40527   4.50005   -0.05354
H   1.85905   3.50668   -0.17151
H   2.23273   -1.68132   -0.3063
O   6.48362   1.696   -2.64172
O   6.22522   1.28797   -0.422805
H   6.6963   2.1297   -0.190047
