24

C   1.67036768   2.61829293   0.26141324
C   0.32486495   2.93565668   0.14187667
C   -0.58274853   1.99459578   -0.32192617
C   2.10380693   1.33474783   -0.08330243
C   1.20477867   0.36107834   -0.56088623
C   -0.14410457   0.71591439   -0.67967172
O   -0.15047973   4.17031830   0.46757918
H   -1.11362742   4.17435169   0.34252323
H   -0.88952763   0.02627898   -1.05466391
H   3.16217364   1.09648053   0.01651245
H   2.39260111   3.34577674   0.61783764
H   -1.63368002   2.25640049   -0.41086724
C   1.76693781   -1.00734158   -0.89647264
C   0.88611369   -2.01942718   -1.65564529
H   2.12129426   -1.46589347   0.03714051
H   2.66457369   -0.82853140   -1.50587979
C   -0.56090840   -1.48340013   -1.73093809
O   -1.33339668   -1.62928010   -2.66487000
O   -0.87243631   -0.77214871   -0.61338894
H   -1.75938844   -0.37138739   -0.79884171
N   1.31559532   -2.30565859   -3.06316682
H   0.83470281   -2.97033029   -1.11280929
H   0.79463768   -3.12652984   -3.39253890
H   0.99111082   -1.54466290   -3.66410811
