24

C   -0.77687900   1.79431085   -0.47815365
C   0.00648825   2.84530943   -0.02304480
C   1.37003567   2.67652608   0.16858380
C   -0.17660241   0.56156251   -0.75052479
C   1.20477867   0.36107834   -0.56088623
C   1.96542167   1.43814939   -0.09094497
O   -0.52759279   4.06781370   0.25383926
H   0.18882662   4.66437162   0.52618207
H   3.02866678   1.35413551   0.09432024
H   -0.80134624   -0.25570438   -1.10919510
H   -1.84556390   1.91016668   -0.62776046
H   1.97186698   3.50793074   0.52561963
C   1.76693781   -1.00734158   -0.89647264
C   0.88611369   -2.01942718   -1.65564529
H   2.12129426   -1.46589347   0.03714051
H   2.66457369   -0.82853140   -1.50587979
C   -0.56090840   -1.48340013   -1.73093809
O   -1.33339668   -1.62928010   -2.66487000
O   -0.87243631   -0.77214871   -0.61338894
H   -0.10462160   -0.90090661   -0.00055256
N   1.31559532   -2.30565859   -3.06316682
H   0.83470281   -2.97033029   -1.11280929
H   2.01802094   -1.60572810   -3.32851188
H   1.82683769   -3.19112052   -3.07427896
