24

C	1.6703676789	2.618292930600001	0.26141323620000023
C	0.32486494919999975	2.9356566767000007	0.14187666590000025
C	-0.5827485327000006	1.9945957799000005	-0.3219261700999999
C	2.1038069276000004	1.3347478299000004	-0.08330242639999985
C	1.2047786725	0.3610783364	-0.5608862301
C	-0.14410456810000016	0.7159143874	-0.67967172
O	-0.15047973390000008	4.170318300500001	0.46757917950000016
H	-0.5871160757861131	4.549866096807809	-0.3125495908247304
H	-0.8895276321000007	0.026278978299999867	-1.0546639132
H	3.1621736383000005	1.0964805338	0.016512452600000227
H	2.3926011133000005	3.3457767379000005	0.6178376387000005
H	-1.6336800213000007	2.2564004859000004	-0.41086724
C	1.7669378109	-1.0073415843	-0.8964726351
C	0.8861136886000003	-2.0194271779	-1.6556452928999998
H	2.1212942615	-1.4658934705	0.0371405069
H	2.6645736857	-0.8285314013	-1.5058797896
C	-0.25507066839690284	-2.499340810624078	-0.7313898699658825
O	-0.17652992823044733	-2.67811433490899	0.47364926882517033
O	-1.3862939528483722	-2.7453739496656278	-1.4466841364124323
H	-1.521332975078453	-3.725353583709669	-1.391088926601582
N	0.2410616794803374	-1.491567131341649	-2.90174778898299
H	1.4642169515576993	-2.9122307315906055	-1.920653146803795
H	0.3515071468160149	-0.4710381851954839	-2.90765605448491
H	0.7838114947428027	-1.8074967982216703	-3.708684064012038
