13

C   -3.71339   1.69506   0.317352
C   -2.49627   2.63452   0.242
C   -4.95655   2.39242   -0.21557
H   -4.78544   2.74642   -1.23866
H   -5.21492   3.2646   0.394767
H   -5.82051   1.71958   -0.242092
N   -3.40979   0.451954   -0.454919
H   -3.85756   1.41772   1.36693
H   -2.59635   0.64189   -1.0497
H   -3.07493   -0.26231   0.19891
O   -1.95131   3.00416   -0.783949
O   -2.1006   3.02673   1.48255
H   -2.66451   2.50969   2.1109
